[TITLE]
;;Project Title/Notes
test_name

[EVAPORATION]
CONSTANT         0.0
DRY_ONLY         NO

[JUNCTIONS]

[STORAGE]
St_1    0.0    2.0    0.9    TABULAR    StC_01                0.0    0.0            

[CONDUITS]

[REPORT]
SUBCATCHMENTS ALL
NODES ALL
LINKS ALL

[TAGS]

[COORDINATES]
St_1    309655.93    5998297.446

[VERTICES]

